&NAM_PGD1 YPGD1 = 'LIV_PGD_2.5KM' /
&NAM_PGD2 YPGD2 = 'LIV_PGD_0.5KM', IDAD=1 /
&NAM_PGD3 /
&NAM_PGD4 /
&NAM_PGD5 /
&NAM_PGD6 /
&NAM_PGD7 /
&NAM_PGD8 /
&NAM_NEST_PGD YNEST = 'FL' /
&NAM_CONFIO LCDF4=T, LLFIOUT=T, LLFIREAD=T /
&NAM_CONF_NEST NHALO_MNH=1 /

